*SPEF "1481-1998"
*DESIGN "topmodule"
*DATE "Mon Dec 19 21:27:34 2016"
*VENDOR "Synopsys, Inc."
*PROGRAM "icc_shell"
*VERSION "I-2013.12-ICC-SP3"
*DESIGN_FLOW "PIN_CAP NONE"
*DIVIDER /
*DELIMITER :
*BUS_DELIMITER [ ]
*T_UNIT 1 NS
*C_UNIT 1 FF
*R_UNIT 1 OHM
*L_UNIT 1 HENRY

*NAME_MAP
*1 R[5]
*2 R[4]
*3 R[3]
*4 R[2]
*5 R[1]
*6 R[0]
*7 VDD
*8 VSS
*9 s1[5]
*10 s1[4]
*11 s1[3]
*12 s1[2]
*13 s1[1]
*14 s1[0]
*15 R[7]
*16 R[6]
*17 s2[5]
*18 s2[4]
*19 s2[3]
*20 s2[2]
*21 s2[1]
*22 s2[0]
*23 s1[7]
*24 s1[6]
*25 motiony[1]
*26 motiony[0]
*27 motionx[3]
*28 motionx[2]
*29 motionx[1]
*30 motionx[0]
*31 s2[7]
*32 s2[6]
*33 AddressR[5]
*34 AddressR[4]
*35 AddressR[3]
*36 AddressR[2]
*37 AddressR[1]
*38 AddressR[0]
*39 motiony[3]
*40 motiony[2]
*41 AddressS1[5]
*42 AddressS1[4]
*43 AddressS1[3]
*44 AddressS1[2]
*45 AddressS1[1]
*46 AddressS1[0]
*47 AddressR[7]
*48 AddressR[6]
*49 AddressS2[3]
*50 AddressS2[2]
*51 AddressS2[1]
*52 AddressS2[0]
*53 AddressS1[9]
*54 AddressS1[8]
*55 AddressS1[7]
*56 AddressS1[6]
*57 BestDist[1]
*58 BestDist[0]
*59 AddressS2[9]
*60 AddressS2[8]
*61 AddressS2[7]
*62 AddressS2[6]
*63 AddressS2[5]
*64 AddressS2[4]
*65 start
*66 clock
*67 BestDist[7]
*68 BestDist[6]
*69 BestDist[5]
*70 BestDist[4]
*71 BestDist[3]
*72 BestDist[2]
*73 pe15/sub_18/n8
*74 pe15/sub_18/U10
*75 pe15/sub_18/U9
*76 pe15/sub_18/U1
*77 Rpipe14\[0\]
*78 pe15/sub_20/U9
*79 pe15/U41
*80 pe14/Rpipe_reg\[0\]
*81 pe15/N7
*82 pe15/U37
*83 pe15/sub_18/carry\[1\]
*84 pe15/sub_18/U2_1
*85 pe15/s\[1\]
*86 pe15/sub_18/U8
*87 pe15/sub_20/U2_1
*88 pe15/U20
*89 pe15/U15
*90 pe15/sub_18/n7
*91 pe15/s\[2\]
*92 pe15/sub_18/U7
*93 pe15/sub_20/U2_2
*94 pe15/U38
*95 pe15/U21
*96 pe15/sub_18/n6
*97 pe15/sub_18/U2_2
*98 pe15/s\[4\]
*99 pe15/sub_18/U6
*100 pe15/sub_20/U2_4
*101 pe15/U23
*102 pe15/U17
*103 pe15/sub_18/n4
*104 pe15/sub_18/U2_4
*105 pe15/s\[3\]
*106 pe15/sub_18/U5
*107 pe15/sub_20/U2_3
*108 pe15/U22
*109 pe15/U16
*110 pe15/sub_18/n5
*111 pe15/sub_18/U2_3
*112 pe15/s\[7\]
*113 pe15/sub_18/U4
*114 pe15/sub_20/U2_7
*115 pe15/U35
*116 pe15/U19
*117 pe15/sub_18/n1
*118 pe15/sub_18/U2_7
*119 pe15/s\[6\]
*120 pe15/sub_18/U3
*121 pe15/sub_20/U2_6
*122 pe15/U25
*123 pe15/U18
*124 pe15/sub_18/n2
*125 pe15/sub_18/U2_6
*126 pe15/s\[5\]
*127 pe15/sub_18/U2
*128 pe15/sub_20/U2_5
*129 pe15/U39
*130 pe15/U24
*131 pe15/sub_18/n3
*132 pe15/sub_18/U2_5
*133 pe15/s\[0\]
*134 pe15/sub_20/U10
*135 pe15/sub_20/U2
*136 pe15/U40
*137 pe15/U34
*138 pe15/sub_18/carry\[5\]
*139 Rpipe14\[5\]
*140 pe15/sub_20/U6
*141 pe15/U47
*142 pe15/U46
*143 pe14/Rpipe_reg\[5\]
*144 pe15/sub_18/carry\[6\]
*145 pe15/N12
*146 pe15/U12
*147 Rpipe14\[6\]
*148 pe15/sub_20/U7
*149 pe15/U48
*150 pe14/Rpipe_reg\[6\]
*151 pe15/sub_18/carry\[7\]
*152 pe15/N13
*153 pe15/U13
*154 Rpipe14\[7\]
*155 pe15/sub_20/U8
*156 pe15/U50
*157 pe15/U49
*158 pe14/Rpipe_reg\[7\]
*159 pe15/N14
*160 pe15/U36
*161 pe15/sub_18/carry\[3\]
*162 Rpipe14\[3\]
*163 pe15/sub_20/U4
*164 pe15/U45
*165 pe15/U44
*166 pe14/Rpipe_reg\[3\]
*167 pe15/sub_18/carry\[4\]
*168 pe15/N10
*169 pe15/U10
*170 Rpipe14\[4\]
*171 pe15/sub_20/U5
*172 pe14/Rpipe_reg\[4\]
*173 pe15/N11
*174 pe15/U11
*175 pe15/sub_18/carry\[2\]
*176 Rpipe14\[2\]
*177 pe15/sub_20/U3
*178 pe15/U43
*179 pe14/Rpipe_reg\[2\]
*180 pe15/N9
*181 pe15/U9
*182 Rpipe14\[1\]
*183 pe15/sub_20/U1
*184 pe14/Rpipe_reg\[1\]
*185 pe15/N8
*186 pe15/U5
*187 pe15/sub_20/n8
*188 pe15/N15
*189 pe15/sub_20/n1
*190 pe15/sub_20/n2
*191 pe15/sub_20/n3
*192 pe15/sub_20/n4
*193 pe15/sub_20/n5
*194 pe15/sub_20/n6
*195 pe15/sub_20/carry\[1\]
*196 pe15/sub_20/n7
*197 pe15/sub_20/carry\[2\]
*198 pe15/N16
*199 pe15/sub_20/carry\[3\]
*200 pe15/N17
*201 pe15/sub_20/carry\[4\]
*202 pe15/N18
*203 pe15/sub_20/carry\[5\]
*204 pe15/N19
*205 pe15/sub_20/carry\[6\]
*206 pe15/N20
*207 pe15/sub_20/carry\[7\]
*208 pe15/N21
*209 pe15/N22
*210 pe15/N23
*211 pe15/add_22/U2
*212 pe15/U33
*213 pe15/difference\[0\]
*214 pe15/add_22/U1
*215 peout\[120\]
*216 pe15/Accumulate_reg\[0\]
*217 comparator1/U243
*218 pe15/add_22/carry\[1\]
*219 pe15/add_22/U1_1
*220 peout\[121\]
*221 pe15/Accumulate_reg\[1\]
*222 comparator1/U244
*223 pe15/add_22/carry\[2\]
*224 pe15/add_22/U1_2
*225 pe15/difference\[1\]
*226 pe15/U32
*227 pe15/N24
*228 peout\[122\]
*229 pe15/Accumulate_reg\[2\]
*230 comparator1/U245
*231 pe15/add_22/carry\[3\]
*232 pe15/add_22/U1_3
*233 pe15/difference\[2\]
*234 pe15/U31
*235 pe15/N25
*236 peout\[123\]
*237 pe15/Accumulate_reg\[3\]
*238 comparator1/U248
*239 pe15/add_22/carry\[4\]
*240 pe15/add_22/U1_4
*241 pe15/difference\[3\]
*242 pe15/U30
*243 pe15/N26
*244 peout\[124\]
*245 pe15/Accumulate_reg\[4\]
*246 comparator1/U249
*247 pe15/add_22/carry\[5\]
*248 pe15/add_22/U1_5
*249 pe15/difference\[4\]
*250 pe15/U29
*251 pe15/N27
*252 peout\[125\]
*253 pe15/Accumulate_reg\[5\]
*254 comparator1/U250
*255 pe15/add_22/carry\[6\]
*256 pe15/add_22/U1_6
*257 pe15/difference\[5\]
*258 pe15/U28
*259 pe15/N28
*260 peout\[126\]
*261 pe15/Accumulate_reg\[6\]
*262 comparator1/U251
*263 pe15/add_22/carry\[7\]
*264 pe15/add_22/U1_7
*265 pe15/difference\[6\]
*266 pe15/U27
*267 pe15/N29
*268 peout\[127\]
*269 pe15/Accumulate_reg\[7\]
*270 comparator1/U252
*271 pe15/Carry
*272 pe15/U26
*273 pe15/difference\[7\]
*274 pe15/N30
*275 pe15/n20
*276 pe15/n12
*277 pe15/N5
*278 pe15/U3
*279 pe15/n11
*280 pe15/n19
*281 pe15/n10
*282 pe15/n18
*283 pe15/n9
*284 pe15/n8
*285 pe15/n17
*286 pe15/n16
*287 pe15/n7
*288 pe15/n6
*289 pe15/n15
*290 pe15/n4
*291 pe15/U42
*292 pe15/n5
*293 pe15/n14
*294 pe15/n13
*295 pe7/U35
*296 pe6/U34
*297 pe5/U35
*298 pe4/U25
*299 pe3/U35
*300 pe2/U35
*301 pe1/U35
*302 pe0/U37
*303 pe14/U34
*304 pe13/U35
*305 pe12/U35
*306 pe11/U35
*307 pe10/U34
*308 pe9/U35
*309 pe8/U39
*310 s1s2mux\[15\]
*311 c/U59
*312 c/U58
*313 pe15/U1
*314 pe7/U25
*315 pe6/U25
*316 pe5/U34
*317 pe4/U38
*318 pe3/U25
*319 pe2/U25
*320 pe1/U25
*321 pe0/U36
*322 pe14/U25
*323 pe13/U34
*324 pe12/U25
*325 pe11/U25
*326 pe10/U25
*327 pe9/U34
*328 pe8/U35
*329 pe7/U24
*330 pe6/U24
*331 pe5/U25
*332 pe4/U24
*333 pe3/U24
*334 pe2/U24
*335 pe1/U24
*336 pe0/U35
*337 pe14/U24
*338 pe13/U25
*339 pe12/U24
*340 pe11/U24
*341 pe10/U24
*342 pe9/U25
*343 pe8/U37
*344 pe7/U23
*345 pe6/U23
*346 pe5/U24
*347 pe4/U23
*348 pe3/U23
*349 pe2/U23
*350 pe1/U23
*351 pe0/U34
*352 pe14/U23
*353 pe13/U24
*354 pe12/U23
*355 pe11/U23
*356 pe10/U23
*357 pe9/U24
*358 pe8/U22
*359 pe7/U22
*360 pe6/U22
*361 pe5/U23
*362 pe4/U22
*363 pe3/U22
*364 pe2/U22
*365 pe1/U22
*366 pe0/U25
*367 pe14/U22
*368 pe13/U23
*369 pe12/U22
*370 pe11/U22
*371 pe10/U22
*372 pe9/U23
*373 pe8/U21
*374 pe7/U21
*375 pe6/U21
*376 pe5/U22
*377 pe4/U21
*378 pe3/U21
*379 pe2/U21
*380 pe1/U21
*381 pe0/U24
*382 pe14/U21
*383 pe13/U22
*384 pe12/U21
*385 pe11/U21
*386 pe10/U21
*387 pe9/U22
*388 pe8/U20
*389 pe7/U20
*390 pe6/U20
*391 pe5/U21
*392 pe4/U20
*393 pe3/U20
*394 pe2/U20
*395 pe1/U20
*396 pe0/U23
*397 pe14/U20
*398 pe13/U21
*399 pe12/U20
*400 pe11/U20
*401 pe10/U20
*402 pe9/U21
*403 pe8/U19
*404 pe7/U34
*405 pe6/U19
*406 pe5/U20
*407 pe4/U39
*408 pe3/U34
*409 pe2/U34
*410 pe1/U34
*411 pe0/U22
*412 pe14/U19
*413 pe13/U20
*414 pe12/U34
*415 pe11/U34
*416 pe10/U19
*417 pe9/U20
*418 pe8/U36
*419 newDist\[15\]
*420 c/U82
*421 c/U57
*422 pe15/U2
*423 pe15/AccumulateIn\[0\]
*424 pe15/AccumulateIn\[1\]
*425 pe15/AccumulateIn\[2\]
*426 pe15/AccumulateIn\[3\]
*427 pe15/AccumulateIn\[4\]
*428 pe15/AccumulateIn\[5\]
*429 pe15/AccumulateIn\[6\]
*430 pe15/AccumulateIn\[7\]
*431 c/count_reg\[12\]
*432 c/count_reg\[2\]
*433 c/count_reg\[1\]
*434 c/count_reg\[3\]
*435 c/count_reg\[0\]
*436 c/count_reg\[10\]
*437 c/count_reg\[5\]
*438 c/count_reg\[4\]
*439 c/count_reg\[6\]
*440 c/count_reg\[7\]
*441 c/count_reg\[8\]
*442 c/count_reg\[9\]
*443 c/count_reg\[11\]
*444 comparator1/tempPEout_reg\[38\]
*445 comparator1/tempPEout_reg\[39\]
*446 comparator1/tempPEout_reg\[80\]
*447 comparator1/tempPEout_reg\[81\]
*448 comparator1/tempPEout_reg\[82\]
*449 comparator1/tempPEout_reg\[83\]
*450 comparator1/tempPEout_reg\[84\]
*451 comparator1/tempPEout_reg\[85\]
*452 comparator1/tempPEout_reg\[30\]
*453 comparator1/tempPEout_reg\[31\]
*454 comparator1/tempPEout_reg\[32\]
*455 comparator1/tempPEout_reg\[33\]
*456 comparator1/tempPEout_reg\[34\]
*457 comparator1/tempPEout_reg\[35\]
*458 comparator1/tempPEout_reg\[36\]
*459 comparator1/tempPEout_reg\[37\]
*460 comparator1/tempPEout_reg\[22\]
*461 comparator1/tempPEout_reg\[23\]
*462 comparator1/tempPEout_reg\[24\]
*463 comparator1/tempPEout_reg\[25\]
*464 comparator1/tempPEout_reg\[26\]
*465 comparator1/tempPEout_reg\[27\]
*466 comparator1/tempPEout_reg\[28\]
*467 comparator1/tempPEout_reg\[29\]
*468 comparator1/tempPEout_reg\[14\]
*469 comparator1/tempPEout_reg\[15\]
*470 comparator1/tempPEout_reg\[16\]
*471 comparator1/tempPEout_reg\[17\]
*472 comparator1/tempPEout_reg\[18\]
*473 comparator1/tempPEout_reg\[19\]
*474 comparator1/tempPEout_reg\[20\]
*475 comparator1/tempPEout_reg\[21\]
*476 comparator1/motionY_reg\[3\]
*477 comparator1/BestDist_reg\[0\]
*478 comparator1/tempPEout_reg\[8\]
*479 comparator1/tempPEout_reg\[9\]
*480 comparator1/tempPEout_reg\[10\]
*481 comparator1/tempPEout_reg\[11\]
*482 comparator1/tempPEout_reg\[12\]
*483 comparator1/tempPEout_reg\[13\]
*484 comparator1/BestDist_reg\[7\]
*485 comparator1/motionX_reg\[0\]
*486 comparator1/motionX_reg\[1\]
*487 comparator1/motionX_reg\[2\]
*488 comparator1/motionX_reg\[3\]
*489 comparator1/motionY_reg\[0\]
*490 comparator1/motionY_reg\[1\]
*491 comparator1/motionY_reg\[2\]
*492 comparator1/tempPEout_reg\[1\]
*493 comparator1/tempPEout_reg\[0\]
*494 comparator1/BestDist_reg\[1\]
*495 comparator1/BestDist_reg\[2\]
*496 comparator1/BestDist_reg\[3\]
*497 comparator1/BestDist_reg\[4\]
*498 comparator1/BestDist_reg\[5\]
*499 comparator1/BestDist_reg\[6\]
*500 comparator1/tempPEout_reg\[90\]
*501 comparator1/tempPEout_reg\[91\]
*502 comparator1/tempPEout_reg\[2\]
*503 comparator1/tempPEout_reg\[3\]
*504 comparator1/tempPEout_reg\[4\]
*505 comparator1/tempPEout_reg\[5\]
*506 comparator1/tempPEout_reg\[6\]
*507 comparator1/tempPEout_reg\[7\]
*508 comparator1/tempPEout_reg\[124\]
*509 comparator1/tempPEout_reg\[125\]
*510 comparator1/tempPEout_reg\[126\]
*511 comparator1/tempPEout_reg\[127\]
*512 comparator1/tempPEout_reg\[86\]
*513 comparator1/tempPEout_reg\[87\]
*514 comparator1/tempPEout_reg\[88\]
*515 comparator1/tempPEout_reg\[89\]
*516 comparator1/tempPEout_reg\[116\]
*517 comparator1/tempPEout_reg\[117\]
*518 comparator1/tempPEout_reg\[118\]
*519 comparator1/tempPEout_reg\[119\]
*520 comparator1/tempPEout_reg\[120\]
*521 comparator1/tempPEout_reg\[121\]
*522 comparator1/tempPEout_reg\[122\]
*523 comparator1/tempPEout_reg\[123\]
*524 comparator1/tempPEout_reg\[108\]
*525 comparator1/tempPEout_reg\[109\]
*526 comparator1/tempPEout_reg\[110\]
*527 comparator1/tempPEout_reg\[111\]
*528 comparator1/tempPEout_reg\[112\]
*529 comparator1/tempPEout_reg\[113\]
*530 comparator1/tempPEout_reg\[114\]
*531 comparator1/tempPEout_reg\[115\]
*532 comparator1/tempPEout_reg\[100\]
*533 comparator1/tempPEout_reg\[101\]
*534 comparator1/tempPEout_reg\[102\]
*535 comparator1/tempPEout_reg\[103\]
*536 comparator1/tempPEout_reg\[104\]
*537 comparator1/tempPEout_reg\[105\]
*538 comparator1/tempPEout_reg\[106\]
*539 comparator1/tempPEout_reg\[107\]
*540 comparator1/tempPEout_reg\[92\]
*541 comparator1/tempPEout_reg\[93\]
*542 comparator1/tempPEout_reg\[94\]
*543 comparator1/tempPEout_reg\[95\]
*544 comparator1/tempPEout_reg\[96\]
*545 comparator1/tempPEout_reg\[97\]
*546 comparator1/tempPEout_reg\[98\]
*547 comparator1/tempPEout_reg\[99\]
*548 comparator1/tempPEout_reg\[72\]
*549 comparator1/tempPEout_reg\[73\]
*550 comparator1/tempPEout_reg\[74\]
*551 comparator1/tempPEout_reg\[75\]
*552 comparator1/tempPEout_reg\[76\]
*553 comparator1/tempPEout_reg\[77\]
*554 comparator1/tempPEout_reg\[78\]
*555 comparator1/tempPEout_reg\[79\]
*556 comparator1/tempPEout_reg\[64\]
*557 comparator1/tempPEout_reg\[65\]
*558 comparator1/tempPEout_reg\[66\]
*559 comparator1/tempPEout_reg\[67\]
*560 comparator1/tempPEout_reg\[68\]
*561 comparator1/tempPEout_reg\[69\]
*562 comparator1/tempPEout_reg\[70\]
*563 comparator1/tempPEout_reg\[71\]
*564 comparator1/tempPEout_reg\[56\]
*565 comparator1/tempPEout_reg\[57\]
*566 comparator1/tempPEout_reg\[58\]
*567 comparator1/tempPEout_reg\[59\]
*568 comparator1/tempPEout_reg\[60\]
*569 comparator1/tempPEout_reg\[61\]
*570 comparator1/tempPEout_reg\[62\]
*571 comparator1/tempPEout_reg\[63\]
*572 comparator1/tempPEout_reg\[48\]
*573 comparator1/tempPEout_reg\[49\]
*574 comparator1/tempPEout_reg\[50\]
*575 comparator1/tempPEout_reg\[51\]
*576 comparator1/tempPEout_reg\[52\]
*577 comparator1/tempPEout_reg\[53\]
*578 comparator1/tempPEout_reg\[54\]
*579 comparator1/tempPEout_reg\[55\]
*580 comparator1/tempPEout_reg\[40\]
*581 comparator1/tempPEout_reg\[41\]
*582 comparator1/tempPEout_reg\[42\]
*583 comparator1/tempPEout_reg\[43\]
*584 comparator1/tempPEout_reg\[44\]
*585 comparator1/tempPEout_reg\[45\]
*586 comparator1/tempPEout_reg\[46\]
*587 comparator1/tempPEout_reg\[47\]
*588 pe0/Rpipe_reg\[0\]
*589 pe0/Rpipe_reg\[1\]
*590 pe0/Rpipe_reg\[2\]
*591 pe0/Rpipe_reg\[3\]
*592 pe0/Rpipe_reg\[4\]
*593 pe0/Rpipe_reg\[5\]
*594 pe0/Rpipe_reg\[6\]
*595 pe0/Rpipe_reg\[7\]
*596 pe0/Accumulate_reg\[0\]
*597 pe0/Accumulate_reg\[1\]
*598 pe0/Accumulate_reg\[2\]
*599 pe0/Accumulate_reg\[3\]
*600 pe0/Accumulate_reg\[4\]
*601 pe0/Accumulate_reg\[5\]
*602 pe0/Accumulate_reg\[6\]
*603 pe0/Accumulate_reg\[7\]
*604 pe1/Rpipe_reg\[0\]
*605 pe1/Rpipe_reg\[1\]
*606 pe1/Rpipe_reg\[2\]
*607 pe1/Rpipe_reg\[3\]
*608 pe1/Rpipe_reg\[4\]
*609 pe1/Rpipe_reg\[5\]
*610 pe1/Rpipe_reg\[6\]
*611 pe1/Rpipe_reg\[7\]
*612 pe1/Accumulate_reg\[7\]
*613 pe1/Accumulate_reg\[6\]
*614 pe1/Accumulate_reg\[5\]
*615 pe1/Accumulate_reg\[4\]
*616 pe1/Accumulate_reg\[3\]
*617 pe1/Accumulate_reg\[2\]
*618 pe1/Accumulate_reg\[1\]
*619 pe1/Accumulate_reg\[0\]
*620 pe2/Rpipe_reg\[0\]
*621 pe2/Rpipe_reg\[1\]
*622 pe2/Rpipe_reg\[2\]
*623 pe2/Rpipe_reg\[3\]
*624 pe2/Rpipe_reg\[4\]
*625 pe2/Rpipe_reg\[5\]
*626 pe2/Rpipe_reg\[6\]
*627 pe2/Rpipe_reg\[7\]
*628 pe2/Accumulate_reg\[7\]
*629 pe2/Accumulate_reg\[6\]
*630 pe2/Accumulate_reg\[5\]
*631 pe2/Accumulate_reg\[4\]
*632 pe2/Accumulate_reg\[3\]
*633 pe2/Accumulate_reg\[2\]
*634 pe2/Accumulate_reg\[1\]
*635 pe2/Accumulate_reg\[0\]
*636 pe3/Rpipe_reg\[0\]
*637 pe3/Rpipe_reg\[1\]
*638 pe3/Rpipe_reg\[2\]
*639 pe3/Rpipe_reg\[3\]
*640 pe3/Rpipe_reg\[4\]
*641 pe3/Rpipe_reg\[5\]
*642 pe3/Rpipe_reg\[6\]
*643 pe3/Rpipe_reg\[7\]
*644 pe3/Accumulate_reg\[7\]
*645 pe3/Accumulate_reg\[6\]
*646 pe3/Accumulate_reg\[5\]
*647 pe3/Accumulate_reg\[4\]
*648 pe3/Accumulate_reg\[3\]
*649 pe3/Accumulate_reg\[2\]
*650 pe3/Accumulate_reg\[1\]
*651 pe3/Accumulate_reg\[0\]
*652 pe4/Rpipe_reg\[0\]
*653 pe4/Rpipe_reg\[1\]
*654 pe4/Rpipe_reg\[2\]
*655 pe4/Rpipe_reg\[3\]
*656 pe4/Rpipe_reg\[4\]
*657 pe4/Rpipe_reg\[5\]
*658 pe4/Rpipe_reg\[6\]
*659 pe4/Rpipe_reg\[7\]
*660 pe4/Accumulate_reg\[7\]
*661 pe4/Accumulate_reg\[6\]
*662 pe4/Accumulate_reg\[5\]
*663 pe4/Accumulate_reg\[4\]
*664 pe4/Accumulate_reg\[3\]
*665 pe4/Accumulate_reg\[2\]
*666 pe4/Accumulate_reg\[1\]
*667 pe4/Accumulate_reg\[0\]
*668 pe5/Rpipe_reg\[0\]
*669 pe5/Rpipe_reg\[1\]
*670 pe5/Rpipe_reg\[2\]
*671 pe5/Rpipe_reg\[3\]
*672 pe5/Rpipe_reg\[4\]
*673 pe5/Rpipe_reg\[5\]
*674 pe5/Rpipe_reg\[6\]
*675 pe5/Rpipe_reg\[7\]
*676 pe5/Accumulate_reg\[7\]
*677 pe5/Accumulate_reg\[6\]
*678 pe5/Accumulate_reg\[5\]
*679 pe5/Accumulate_reg\[4\]
*680 pe5/Accumulate_reg\[3\]
*681 pe5/Accumulate_reg\[2\]
*682 pe5/Accumulate_reg\[1\]
*683 pe5/Accumulate_reg\[0\]
*684 pe6/Rpipe_reg\[0\]
*685 pe6/Rpipe_reg\[1\]
*686 pe6/Rpipe_reg\[2\]
*687 pe6/Rpipe_reg\[3\]
*688 pe6/Rpipe_reg\[4\]
*689 pe6/Rpipe_reg\[5\]
*690 pe6/Rpipe_reg\[6\]
*691 pe6/Rpipe_reg\[7\]
*692 pe6/Accumulate_reg\[7\]
*693 pe6/Accumulate_reg\[6\]
*694 pe6/Accumulate_reg\[5\]
*695 pe6/Accumulate_reg\[4\]
*696 pe6/Accumulate_reg\[3\]
*697 pe6/Accumulate_reg\[2\]
*698 pe6/Accumulate_reg\[1\]
*699 pe6/Accumulate_reg\[0\]
*700 pe7/Rpipe_reg\[0\]
*701 pe7/Rpipe_reg\[1\]
*702 pe7/Rpipe_reg\[2\]
*703 pe7/Rpipe_reg\[3\]
*704 pe7/Rpipe_reg\[4\]
*705 pe7/Rpipe_reg\[5\]
*706 pe7/Rpipe_reg\[6\]
*707 pe7/Rpipe_reg\[7\]
*708 pe7/Accumulate_reg\[7\]
*709 pe7/Accumulate_reg\[6\]
*710 pe7/Accumulate_reg\[5\]
*711 pe7/Accumulate_reg\[4\]
*712 pe7/Accumulate_reg\[3\]
*713 pe7/Accumulate_reg\[2\]
*714 pe7/Accumulate_reg\[1\]
*715 pe7/Accumulate_reg\[0\]
*716 pe8/Rpipe_reg\[0\]
*717 pe8/Rpipe_reg\[1\]
*718 pe8/Rpipe_reg\[2\]
*719 pe8/Rpipe_reg\[3\]
*720 pe8/Rpipe_reg\[4\]
*721 pe8/Rpipe_reg\[5\]
*722 pe8/Rpipe_reg\[6\]
*723 pe8/Rpipe_reg\[7\]
*724 pe8/Accumulate_reg\[7\]
*725 pe8/Accumulate_reg\[6\]
*726 pe8/Accumulate_reg\[5\]
*727 pe8/Accumulate_reg\[4\]
*728 pe8/Accumulate_reg\[3\]
*729 pe8/Accumulate_reg\[2\]
*730 pe8/Accumulate_reg\[1\]
*731 pe8/Accumulate_reg\[0\]
*732 pe9/Rpipe_reg\[0\]
*733 pe9/Rpipe_reg\[1\]
*734 pe9/Rpipe_reg\[2\]
*735 pe9/Rpipe_reg\[3\]
*736 pe9/Rpipe_reg\[4\]
*737 pe9/Rpipe_reg\[5\]
*738 pe9/Rpipe_reg\[6\]
*739 pe9/Rpipe_reg\[7\]
*740 pe9/Accumulate_reg\[7\]
*741 pe9/Accumulate_reg\[6\]
*742 pe9/Accumulate_reg\[5\]
*743 pe9/Accumulate_reg\[4\]
*744 pe9/Accumulate_reg\[3\]
*745 pe9/Accumulate_reg\[2\]
*746 pe9/Accumulate_reg\[1\]
*747 pe9/Accumulate_reg\[0\]
*748 pe10/Rpipe_reg\[0\]
*749 pe10/Rpipe_reg\[1\]
*750 pe10/Rpipe_reg\[2\]
*751 pe10/Rpipe_reg\[3\]
*752 pe10/Rpipe_reg\[4\]
*753 pe10/Rpipe_reg\[5\]
*754 pe10/Rpipe_reg\[6\]
*755 pe10/Rpipe_reg\[7\]
*756 pe10/Accumulate_reg\[7\]
*757 pe10/Accumulate_reg\[6\]
*758 pe10/Accumulate_reg\[5\]
*759 pe10/Accumulate_reg\[4\]
*760 pe10/Accumulate_reg\[3\]
*761 pe10/Accumulate_reg\[2\]
*762 pe10/Accumulate_reg\[1\]
*763 pe10/Accumulate_reg\[0\]
*764 pe11/Rpipe_reg\[0\]
*765 pe11/Rpipe_reg\[1\]
*766 pe11/Rpipe_reg\[2\]
*767 pe11/Rpipe_reg\[3\]
*768 pe11/Rpipe_reg\[4\]
*769 pe11/Rpipe_reg\[5\]
*770 pe11/Rpipe_reg\[6\]
*771 pe11/Rpipe_reg\[7\]
*772 pe11/Accumulate_reg\[7\]
*773 pe11/Accumulate_reg\[6\]
*774 pe11/Accumulate_reg\[5\]
*775 pe11/Accumulate_reg\[4\]
*776 pe11/Accumulate_reg\[3\]
*777 pe11/Accumulate_reg\[2\]
*778 pe11/Accumulate_reg\[1\]
*779 pe11/Accumulate_reg\[0\]
*780 pe12/Rpipe_reg\[0\]
*781 pe12/Rpipe_reg\[1\]
*782 pe12/Rpipe_reg\[2\]
*783 pe12/Rpipe_reg\[3\]
*784 pe12/Rpipe_reg\[4\]
*785 pe12/Rpipe_reg\[5\]
*786 pe12/Rpipe_reg\[6\]
*787 pe12/Rpipe_reg\[7\]
*788 pe12/Accumulate_reg\[7\]
*789 pe12/Accumulate_reg\[6\]
*790 pe12/Accumulate_reg\[5\]
*791 pe12/Accumulate_reg\[4\]
*792 pe12/Accumulate_reg\[3\]
*793 pe12/Accumulate_reg\[2\]
*794 pe12/Accumulate_reg\[1\]
*795 pe12/Accumulate_reg\[0\]
*796 pe13/Rpipe_reg\[0\]
*797 pe13/Rpipe_reg\[1\]
*798 pe13/Rpipe_reg\[2\]
*799 pe13/Rpipe_reg\[3\]
*800 pe13/Rpipe_reg\[4\]
*801 pe13/Rpipe_reg\[5\]
*802 pe13/Rpipe_reg\[6\]
*803 pe13/Rpipe_reg\[7\]
*804 pe13/Accumulate_reg\[7\]
*805 pe13/Accumulate_reg\[6\]
*806 pe13/Accumulate_reg\[5\]
*807 pe13/Accumulate_reg\[4\]
*808 pe13/Accumulate_reg\[3\]
*809 pe13/Accumulate_reg\[2\]
*810 pe13/Accumulate_reg\[1\]
*811 pe13/Accumulate_reg\[0\]
*812 pe14/Accumulate_reg\[7\]
*813 pe14/Accumulate_reg\[6\]
*814 pe14/Accumulate_reg\[5\]
*815 pe14/Accumulate_reg\[4\]
*816 pe14/Accumulate_reg\[3\]
*817 pe14/Accumulate_reg\[2\]
*818 pe14/Accumulate_reg\[1\]
*819 pe14/Accumulate_reg\[0\]
*820 pe14/sub_18/n8
*821 pe14/sub_18/U10
*822 pe14/sub_18/U9
*823 pe14/sub_18/U1
*824 Rpipe13\[0\]
*825 pe14/sub_20/U9
*826 pe14/U41
*827 pe14/N7
*828 pe14/U36
*829 pe14/sub_18/carry\[1\]
*830 pe14/sub_18/U2_1
*831 pe14/s\[1\]
*832 pe14/sub_18/U8
*833 pe14/sub_20/U2_1
*834 pe14/U14
*835 pe14/sub_18/n7
*836 pe14/s\[2\]
*837 pe14/sub_18/U7
*838 pe14/sub_20/U2_2
*839 pe14/U38
*840 pe14/sub_18/n6
*841 pe14/sub_18/U2_2
*842 pe14/s\[4\]
*843 pe14/sub_18/U6
*844 pe14/sub_20/U2_4
*845 pe14/U16
*846 pe14/sub_18/n4
*847 pe14/sub_18/U2_4
*848 pe14/s\[3\]
*849 pe14/sub_18/U5
*850 pe14/sub_20/U2_3
*851 pe14/U15
*852 pe14/sub_18/n5
*853 pe14/sub_18/U2_3
*854 pe14/s\[7\]
*855 pe14/sub_18/U4
*856 pe14/sub_20/U2_7
*857 pe14/U35
*858 pe14/sub_18/n1
*859 pe14/sub_18/U2_7
*860 pe14/s\[6\]
*861 pe14/sub_18/U3
*862 pe14/sub_20/U2_6
*863 pe14/U17
*864 pe14/sub_18/n2
*865 pe14/sub_18/U2_6
*866 pe14/s\[5\]
*867 pe14/sub_18/U2
*868 pe14/sub_20/U2_5
*869 pe14/U39
*870 pe14/sub_18/n3
*871 pe14/sub_18/U2_5
*872 pe14/s\[0\]
*873 pe14/sub_20/U10
*874 pe14/sub_20/U2
*875 pe14/U40
*876 pe14/sub_18/carry\[5\]
*877 Rpipe13\[5\]
*878 pe14/sub_20/U6
*879 pe14/U47
*880 pe14/U46
*881 pe14/sub_18/carry\[6\]
*882 pe14/N12
*883 pe14/U11
*884 Rpipe13\[6\]
*885 pe14/sub_20/U7
*886 pe14/U48
*887 pe14/sub_18/carry\[7\]
*888 pe14/N13
*889 pe14/U12
*890 Rpipe13\[7\]
*891 pe14/sub_20/U8
*892 pe14/U50
*893 pe14/U49
*894 pe14/N14
*895 pe14/U37
*896 pe14/sub_18/carry\[3\]
*897 Rpipe13\[3\]
*898 pe14/sub_20/U4
*899 pe14/U45
*900 pe14/U44
*901 pe14/sub_18/carry\[4\]
*902 pe14/N10
*903 pe14/U9
*904 Rpipe13\[4\]
*905 pe14/sub_20/U5
*906 pe14/N11
*907 pe14/U10
*908 pe14/sub_18/carry\[2\]
*909 Rpipe13\[2\]
*910 pe14/sub_20/U3
*911 pe14/U43
*912 pe14/N9
*913 pe14/U5
*914 Rpipe13\[1\]
*915 pe14/sub_20/U1
*916 pe14/N8
*917 pe14/U4
*918 pe14/sub_20/n8
*919 pe14/N15
*920 pe14/sub_20/n1
*921 pe14/sub_20/n2
*922 pe14/sub_20/n3
*923 pe14/sub_20/n4
*924 pe14/sub_20/n5
*925 pe14/sub_20/n6
*926 pe14/sub_20/carry\[1\]
*927 pe14/sub_20/n7
*928 pe14/sub_20/carry\[2\]
*929 pe14/N16
*930 pe14/sub_20/carry\[3\]
*931 pe14/N17
*932 pe14/sub_20/carry\[4\]
*933 pe14/N18
*934 pe14/sub_20/carry\[5\]
*935 pe14/N19
*936 pe14/sub_20/carry\[6\]
*937 pe14/N20
*938 pe14/sub_20/carry\[7\]
*939 pe14/N21
*940 pe14/N22
*941 pe14/N23
*942 pe14/add_22/U2
*943 pe14/U33
*944 pe14/difference\[0\]
*945 pe14/add_22/U1
*946 peout\[112\]
*947 comparator1/U223
*948 pe14/add_22/carry\[1\]
*949 pe14/add_22/U1_1
*950 peout\[113\]
*951 comparator1/U224
*952 pe14/add_22/carry\[2\]
*953 pe14/add_22/U1_2
*954 pe14/difference\[1\]
*955 pe14/U32
*956 pe14/N24
*957 peout\[114\]
*958 comparator1/U225
*959 pe14/add_22/carry\[3\]
*960 pe14/add_22/U1_3
*961 pe14/difference\[2\]
*962 pe14/U31
*963 pe14/N25
*964 peout\[115\]
*965 comparator1/U226
*966 pe14/add_22/carry\[4\]
*967 pe14/add_22/U1_4
*968 pe14/difference\[3\]
*969 pe14/U30
*970 pe14/N26
*971 peout\[116\]
*972 comparator1/U237
*973 pe14/add_22/carry\[5\]
*974 pe14/add_22/U1_5
*975 pe14/difference\[4\]
*976 pe14/U29
*977 pe14/N27
*978 peout\[117\]
*979 comparator1/U238
*980 pe14/add_22/carry\[6\]
*981 pe14/add_22/U1_6
*982 pe14/difference\[5\]
*983 pe14/U28
*984 pe14/N28
*985 peout\[118\]
*986 comparator1/U239
*987 pe14/add_22/carry\[7\]
*988 pe14/add_22/U1_7
*989 pe14/difference\[6\]
*990 pe14/U27
*991 pe14/N29
*992 peout\[119\]
*993 comparator1/U242
*994 pe14/Carry
*995 pe14/U26
*996 pe14/difference\[7\]
*997 pe14/N30
*998 pe14/n20
*999 pe14/n12
*1000 pe14/N5
*1001 pe14/U3
*1002 pe14/n11
*1003 pe14/n19
*1004 pe14/n10
*1005 pe14/n18
*1006 pe14/n9
*1007 pe14/n8
*1008 pe14/n17
*1009 pe14/n16
*1010 pe14/n7
*1011 pe14/n6
*1012 pe14/n15
*1013 pe14/n4
*1014 pe14/U42
*1015 pe14/n5
*1016 pe14/n14
*1017 pe14/n13
*1018 s1s2mux\[14\]
*1019 c/U14
*1020 c/U61
*1021 c/U34
*1022 pe14/U1
*1023 newDist\[14\]
*1024 c/U60
*1025 pe14/U2
*1026 pe14/AccumulateIn\[0\]
*1027 pe14/AccumulateIn\[1\]
*1028 pe14/AccumulateIn\[2\]
*1029 pe14/AccumulateIn\[3\]
*1030 pe14/AccumulateIn\[4\]
*1031 pe14/AccumulateIn\[5\]
*1032 pe14/AccumulateIn\[6\]
*1033 pe14/AccumulateIn\[7\]
*1034 pe13/sub_18/n8
*1035 pe13/sub_18/U10
*1036 pe13/sub_18/U9
*1037 pe13/sub_18/U1
*1038 Rpipe12\[0\]
*1039 pe13/sub_20/U9
*1040 pe13/U41
*1041 pe13/N7
*1042 pe13/U37
*1043 pe13/sub_18/carry\[1\]
*1044 pe13/sub_18/U2_1
*1045 pe13/s\[1\]
*1046 pe13/sub_18/U8
*1047 pe13/sub_20/U2_1
*1048 pe13/U15
*1049 pe13/sub_18/n7
*1050 pe13/s\[2\]
*1051 pe13/sub_18/U7
*1052 pe13/sub_20/U2_2
*1053 pe13/U38
*1054 pe13/sub_18/n6
*1055 pe13/sub_18/U2_2
*1056 pe13/s\[4\]
*1057 pe13/sub_18/U6
*1058 pe13/sub_20/U2_4
*1059 pe13/U17
*1060 pe13/sub_18/n4
*1061 pe13/sub_18/U2_4
*1062 pe13/s\[3\]
*1063 pe13/sub_18/U5
*1064 pe13/sub_20/U2_3
*1065 pe13/U16
*1066 pe13/sub_18/n5
*1067 pe13/sub_18/U2_3
*1068 pe13/s\[7\]
*1069 pe13/sub_18/U4
*1070 pe13/sub_20/U2_7
*1071 pe13/U19
*1072 pe13/sub_18/n1
*1073 pe13/sub_18/U2_7
*1074 pe13/s\[6\]
*1075 pe13/sub_18/U3
*1076 pe13/sub_20/U2_6
*1077 pe13/U18
*1078 pe13/sub_18/n2
*1079 pe13/sub_18/U2_6
*1080 pe13/s\[5\]
*1081 pe13/sub_18/U2
*1082 pe13/sub_20/U2_5
*1083 pe13/U39
*1084 pe13/sub_18/n3
*1085 pe13/sub_18/U2_5
*1086 pe13/s\[0\]
*1087 pe13/sub_20/U10
*1088 pe13/sub_20/U2
*1089 pe13/U40
*1090 pe13/sub_18/carry\[5\]
*1091 Rpipe12\[5\]
*1092 pe13/sub_20/U6
*1093 pe13/U47
*1094 pe13/U46
*1095 pe13/sub_18/carry\[6\]
*1096 pe13/N12
*1097 pe13/U12
*1098 Rpipe12\[6\]
*1099 pe13/sub_20/U7
*1100 pe13/U48
*1101 pe13/sub_18/carry\[7\]
*1102 pe13/N13
*1103 pe13/U13
*1104 Rpipe12\[7\]
*1105 pe13/sub_20/U8
*1106 pe13/U50
*1107 pe13/U49
*1108 pe13/N14
*1109 pe13/U36
*1110 pe13/sub_18/carry\[3\]
*1111 Rpipe12\[3\]
*1112 pe13/sub_20/U4
*1113 pe13/U45
*1114 pe13/U44
*1115 pe13/sub_18/carry\[4\]
*1116 pe13/N10
*1117 pe13/U10
*1118 Rpipe12\[4\]
*1119 pe13/sub_20/U5
*1120 pe13/N11
*1121 pe13/U11
*1122 pe13/sub_18/carry\[2\]
*1123 Rpipe12\[2\]
*1124 pe13/sub_20/U3
*1125 pe13/U43
*1126 pe13/N9
*1127 pe13/U9
*1128 Rpipe12\[1\]
*1129 pe13/sub_20/U1
*1130 pe13/N8
*1131 pe13/U5
*1132 pe13/sub_20/n8
*1133 pe13/N15
*1134 pe13/sub_20/n1
*1135 pe13/sub_20/n2
*1136 pe13/sub_20/n3
*1137 pe13/sub_20/n4
*1138 pe13/sub_20/n5
*1139 pe13/sub_20/n6
*1140 pe13/sub_20/carry\[1\]
*1141 pe13/sub_20/n7
*1142 pe13/sub_20/carry\[2\]
*1143 pe13/N16
*1144 pe13/sub_20/carry\[3\]
*1145 pe13/N17
*1146 pe13/sub_20/carry\[4\]
*1147 pe13/N18
*1148 pe13/sub_20/carry\[5\]
*1149 pe13/N19
*1150 pe13/sub_20/carry\[6\]
*1151 pe13/N20
*1152 pe13/sub_20/carry\[7\]
*1153 pe13/N21
*1154 pe13/N22
*1155 pe13/N23
*1156 pe13/add_22/U2
*1157 pe13/U33
*1158 pe13/difference\[0\]
*1159 pe13/add_22/U1
*1160 peout\[104\]
*1161 comparator1/U211
*1162 pe13/add_22/carry\[1\]
*1163 pe13/add_22/U1_1
*1164 peout\[105\]
*1165 comparator1/U212
*1166 pe13/add_22/carry\[2\]
*1167 pe13/add_22/U1_2
*1168 pe13/difference\[1\]
*1169 pe13/U32
*1170 pe13/N24
*1171 peout\[106\]
*1172 comparator1/U213
*1173 pe13/add_22/carry\[3\]
*1174 pe13/add_22/U1_3
*1175 pe13/difference\[2\]
*1176 pe13/U31
*1177 pe13/N25
*1178 peout\[107\]
*1179 comparator1/U214
*1180 pe13/add_22/carry\[4\]
*1181 pe13/add_22/U1_4
*1182 pe13/difference\[3\]
*1183 pe13/U30
*1184 pe13/N26
*1185 peout\[108\]
*1186 comparator1/U217
*1187 pe13/add_22/carry\[5\]
*1188 pe13/add_22/U1_5
*1189 pe13/difference\[4\]
*1190 pe13/U29
*1191 pe13/N27
*1192 peout\[109\]
*1193 comparator1/U218
*1194 pe13/add_22/carry\[6\]
*1195 pe13/add_22/U1_6
*1196 pe13/difference\[5\]
*1197 pe13/U28
*1198 pe13/N28
*1199 peout\[110\]
*1200 comparator1/U219
*1201 pe13/add_22/carry\[7\]
*1202 pe13/add_22/U1_7
*1203 pe13/difference\[6\]
*1204 pe13/U27
*1205 pe13/N29
*1206 peout\[111\]
*1207 comparator1/U220
*1208 pe13/Carry
*1209 pe13/U26
*1210 pe13/difference\[7\]
*1211 pe13/N30
*1212 pe13/n20
*1213 pe13/n12
*1214 pe13/N5
*1215 pe13/U3
*1216 pe13/n11
*1217 pe13/n19
*1218 pe13/n10
*1219 pe13/n18
*1220 pe13/n9
*1221 pe13/n8
*1222 pe13/n17
*1223 pe13/n16
*1224 pe13/n7
*1225 pe13/n6
*1226 pe13/n15
*1227 pe13/n4
*1228 pe13/U42
*1229 pe13/n5
*1230 pe13/n14
*1231 pe13/n13
*1232 s1s2mux\[13\]
*1233 pe13/U1
*1234 newDist\[13\]
*1235 c/U64
*1236 c/U63
*1237 pe13/U2
*1238 pe13/AccumulateIn\[0\]
*1239 pe13/AccumulateIn\[1\]
*1240 pe13/AccumulateIn\[2\]
*1241 pe13/AccumulateIn\[3\]
*1242 pe13/AccumulateIn\[4\]
*1243 pe13/AccumulateIn\[5\]
*1244 pe13/AccumulateIn\[6\]
*1245 pe13/AccumulateIn\[7\]
*1246 pe12/sub_18/n8
*1247 pe12/sub_18/U10
*1248 pe12/sub_18/U3
*1249 pe12/sub_18/U1
*1250 Rpipe11\[0\]
*1251 pe12/sub_20/U9
*1252 pe12/U41
*1253 pe12/N7
*1254 pe12/U36
*1255 pe12/s\[2\]
*1256 pe12/sub_18/U9
*1257 pe12/sub_20/U2_2
*1258 pe12/U38
*1259 pe12/sub_18/n6
*1260 pe12/sub_18/U2_2
*1261 pe12/s\[4\]
*1262 pe12/sub_18/U8
*1263 pe12/sub_20/U2_4
*1264 pe12/U16
*1265 pe12/sub_18/n4
*1266 pe12/sub_18/U2_4
*1267 pe12/s\[3\]
*1268 pe12/sub_18/U7
*1269 pe12/sub_20/U2_3
*1270 pe12/U15
*1271 pe12/sub_18/n5
*1272 pe12/sub_18/U2_3
*1273 pe12/s\[7\]
*1274 pe12/sub_18/U6
*1275 pe12/sub_20/U2_7
*1276 pe12/U19
*1277 pe12/sub_18/n1
*1278 pe12/sub_18/U2_7
*1279 pe12/s\[6\]
*1280 pe12/sub_18/U5
*1281 pe12/sub_20/U2_6
*1282 pe12/U17
*1283 pe12/sub_18/n2
*1284 pe12/sub_18/U2_6
*1285 pe12/s\[5\]
*1286 pe12/sub_18/U4
*1287 pe12/sub_20/U2_5
*1288 pe12/U37
*1289 pe12/sub_18/n3
*1290 pe12/sub_18/U2_5
*1291 pe12/sub_18/carry\[1\]
*1292 pe12/sub_18/U2_1
*1293 pe12/s\[1\]
*1294 pe12/sub_18/U2
*1295 pe12/sub_20/U2_1
*1296 pe12/U14
*1297 pe12/sub_18/n7
*1298 pe12/s\[0\]
*1299 pe12/sub_20/U10
*1300 pe12/sub_20/U2
*1301 pe12/U39
*1302 Rpipe11\[1\]
*1303 pe12/sub_20/U1
*1304 pe12/U43
*1305 pe12/sub_18/carry\[2\]
*1306 pe12/N8
*1307 pe12/U5
*1308 pe12/sub_18/carry\[5\]
*1309 Rpipe11\[5\]
*1310 pe12/sub_20/U6
*1311 pe12/U47
*1312 pe12/U46
*1313 pe12/sub_18/carry\[6\]
*1314 pe12/N12
*1315 pe12/U12
*1316 Rpipe11\[6\]
*1317 pe12/sub_20/U7
*1318 pe12/U48
*1319 pe12/sub_18/carry\[7\]
*1320 pe12/N13
*1321 pe12/U18
*1322 Rpipe11\[7\]
*1323 pe12/sub_20/U8
*1324 pe12/U50
*1325 pe12/U49
*1326 pe12/N14
*1327 pe12/U40
*1328 pe12/sub_18/carry\[3\]
*1329 Rpipe11\[3\]
*1330 pe12/sub_20/U4
*1331 pe12/U45
*1332 pe12/U44
*1333 pe12/sub_18/carry\[4\]
*1334 pe12/N10
*1335 pe12/U10
*1336 Rpipe11\[4\]
*1337 pe12/sub_20/U5
*1338 pe12/N11
*1339 pe12/U11
*1340 Rpipe11\[2\]
*1341 pe12/sub_20/U3
*1342 pe12/N9
*1343 pe12/U9
*1344 pe12/sub_20/n8
*1345 pe12/N15
*1346 pe12/sub_20/n1
*1347 pe12/sub_20/n2
*1348 pe12/sub_20/n3
*1349 pe12/sub_20/n4
*1350 pe12/sub_20/n5
*1351 pe12/sub_20/n6
*1352 pe12/sub_20/carry\[1\]
*1353 pe12/sub_20/n7
*1354 pe12/sub_20/carry\[2\]
*1355 pe12/N16
*1356 pe12/sub_20/carry\[3\]
*1357 pe12/N17
*1358 pe12/sub_20/carry\[4\]
*1359 pe12/N18
*1360 pe12/sub_20/carry\[5\]
*1361 pe12/N19
*1362 pe12/sub_20/carry\[6\]
*1363 pe12/N20
*1364 pe12/sub_20/carry\[7\]
*1365 pe12/N21
*1366 pe12/N22
*1367 pe12/N23
*1368 pe12/add_22/U2
*1369 pe12/U33